198
  -OEChem-11252216163D

 43 44  0     1  0  0  0  0  0999 V2000
    4.9790   -1.1690   -0.8830 C   0  0  0  0  0  0  0  0  0  0  0  0
    5.8500   -2.1630   -0.4780 C   0  0  0  0  0  0  0  0  0  0  0  0
    6.4400   -2.0970    0.7730 C   0  0  0  0  0  0  0  0  0  0  0  0
    7.2920   -3.0680    1.1710 F   0  0  0  0  0  0  0  0  0  0  0  0
    6.1570   -1.0360    1.6170 C   0  0  0  0  0  0  0  0  0  0  0  0
    5.2890   -0.0410    1.2070 C   0  0  0  0  0  0  0  0  0  0  0  0
    4.6970   -0.1110   -0.0400 C   0  0  0  0  0  0  0  0  0  0  0  0
    3.5860    1.1550   -0.5580 S   0  0  0  0  0  0  0  0  0  0  0  0
    4.0140    2.2790    0.1980 O   0  0  0  0  0  0  0  0  0  0  0  0
    3.6960    1.1110   -1.9740 O   0  0  0  0  0  0  0  0  0  0  0  0
    1.9730    0.5450    0.0060 C   0  0  0  0  0  0  0  0  0  0  0  0
    0.8850    1.5510   -0.3770 C   0  0  1  0  0  0  0  0  0  0  0  0
    1.0960    2.7730    0.3330 O   0  0  0  0  0  0  0  0  0  0  0  0
    0.9440    1.8190   -1.8820 C   0  0  0  0  0  0  0  0  0  0  0  0
   -0.4670    0.9900   -0.0190 C   0  0  0  0  0  0  0  0  0  0  0  0
   -0.6250   -0.2110    0.0550 O   0  0  0  0  0  0  0  0  0  0  0  0
   -1.5000    1.8210    0.2200 N   0  0  0  0  0  0  0  0  0  0  0  0
   -2.7770    1.3020    0.4380 C   0  0  0  0  0  0  0  0  0  0  0  0
   -3.1800    0.1480   -0.2250 C   0  0  0  0  0  0  0  0  0  0  0  0
   -3.6470    1.9450    1.3140 C   0  0  0  0  0  0  0  0  0  0  0  0
   -4.9070    1.4360    1.5320 C   0  0  0  0  0  0  0  0  0  0  0  0
   -5.3130    0.2730    0.8710 C   0  0  0  0  0  0  0  0  0  0  0  0
   -6.6240   -0.2590    1.0950 C   0  0  0  0  0  0  0  0  0  0  0  0
   -7.6640   -0.6810    1.2720 N   0  0  0  0  0  0  0  0  0  0  0  0
   -4.4370   -0.3700   -0.0080 C   0  0  0  0  0  0  0  0  0  0  0  0
   -4.8700   -1.6240   -0.7220 C   0  0  0  0  0  0  0  0  0  0  0  0
   -3.8300   -2.0780   -1.5400 F   0  0  0  0  0  0  0  0  0  0  0  0
   -5.1880   -2.6100    0.2180 F   0  0  0  0  0  0  0  0  0  0  0  0
   -5.9950   -1.3490   -1.5070 F   0  0  0  0  0  0  0  0  0  0  0  0
    4.5190   -1.2200   -1.8590 H   0  0  0  0  0  0  0  0  0  0  0  0
    6.0700   -2.9900   -1.1360 H   0  0  0  0  0  0  0  0  0  0  0  0
    6.6160   -0.9850    2.5930 H   0  0  0  0  0  0  0  0  0  0  0  0
    5.0680    0.7860    1.8650 H   0  0  0  0  0  0  0  0  0  0  0  0
    1.9890    0.4210    1.0880 H   0  0  0  0  0  0  0  0  0  0  0  0
    1.7620   -0.4150   -0.4670 H   0  0  0  0  0  0  0  0  0  0  0  0
    1.0510    2.5610    1.2760 H   0  0  0  0  0  0  0  0  0  0  0  0
    1.9220    2.2250   -2.1410 H   0  0  0  0  0  0  0  0  0  0  0  0
    0.7830    0.8870   -2.4230 H   0  0  0  0  0  0  0  0  0  0  0  0
    0.1690    2.5360   -2.1540 H   0  0  0  0  0  0  0  0  0  0  0  0
   -1.3570    2.7800    0.2390 H   0  0  0  0  0  0  0  0  0  0  0  0
   -2.5020   -0.3480   -0.9040 H   0  0  0  0  0  0  0  0  0  0  0  0
   -3.3320    2.8430    1.8240 H   0  0  0  0  0  0  0  0  0  0  0  0
   -5.5810    1.9350    2.2120 H   0  0  0  0  0  0  0  0  0  0  0  0
  1  2  2  0  0  0  0
  1  7  1  0  0  0  0
  1 30  1  0  0  0  0
  2  3  1  0  0  0  0
  2 31  1  0  0  0  0
  3  4  1  0  0  0  0
  3  5  2  0  0  0  0
  5  6  1  0  0  0  0
  5 32  1  0  0  0  0
  6  7  2  0  0  0  0
  6 33  1  0  0  0  0
  7  8  1  0  0  0  0
  8  9  2  0  0  0  0
  8 10  2  0  0  0  0
  8 11  1  0  0  0  0
 11 12  1  0  0  0  0
 11 34  1  0  0  0  0
 11 35  1  0  0  0  0
 12 13  1  0  0  0  0
 12 14  1  0  0  0  0
 12 15  1  0  0  0  0
 13 36  1  0  0  0  0
 14 37  1  0  0  0  0
 14 38  1  0  0  0  0
 14 39  1  0  0  0  0
 15 16  2  0  0  0  0
 15 17  1  0  0  0  0
 17 18  1  0  0  0  0
 17 40  1  0  0  0  0
 18 19  2  0  0  0  0
 18 20  1  0  0  0  0
 19 25  1  0  0  0  0
 19 41  1  0  0  0  0
 20 21  2  0  0  0  0
 20 42  1  0  0  0  0
 21 22  1  0  0  0  0
 21 43  1  0  0  0  0
 22 23  1  0  0  0  0
 22 25  2  0  0  0  0
 23 24  3  0  0  0  0
 25 26  1  0  0  0  0
 26 27  1  0  0  0  0
 26 28  1  0  0  0  0
 26 29  1  0  0  0  0
M  END
> <OPENEYE_ISO_SMILES>
C[C@](CS(=O)(=O)c1ccc(cc1)F)(C(=O)Nc2ccc(c(c2)C(F)(F)F)C#N)O

> <OPENEYE_INCHI>
InChI=1S/C18H14F4N2O4S/c1-17(26,10-29(27,28)14-6-3-12(19)4-7-14)16(25)24-13-5-2-11(9-23)15(8-13)18(20,21)22/h2-8,26H,10H2,1H3,(H,24,25)/t17-/m0/s1

> <OPENEYE_INCHIKEY>
LKJPYSCBVHEWIU-KRWDZBQOSA-N

> <FORMULA>
C18H14F4N2O4S

$$$$
