9TP
  -OEChem-11252216173D

 78 85  0     1  0  0  0  0  0999 V2000
   -1.0610   -3.4490   -0.1590 C   0  0  0  0  0  0  0  0  0  0  0  0
   -2.3570   -3.6150   -0.6430 C   0  0  0  0  0  0  0  0  0  0  0  0
   -3.1110   -2.5030   -0.9720 C   0  0  0  0  0  0  0  0  0  0  0  0
   -2.5870   -1.2270   -0.8250 C   0  0  0  0  0  0  0  0  0  0  0  0
   -1.3090   -1.0610   -0.3360 C   0  0  0  0  0  0  0  0  0  0  0  0
   -0.5460   -2.1740   -0.0090 C   0  0  0  0  0  0  0  0  0  0  0  0
   -3.4670   -0.0620   -1.2370 C   0  0  2  0  0  0  0  0  0  0  0  0
   -2.5770    1.1510   -1.4190 C   0  0  2  0  0  0  0  0  0  0  0  0
   -1.8010    1.3260   -0.0750 C   0  0  1  0  0  0  0  0  0  0  0  0
   -0.6820    0.3010   -0.1120 C   0  0  2  0  0  0  0  0  0  0  0  0
   -0.5280   -4.6800    0.0920 O   0  0  0  0  0  0  0  0  0  0  0  0
   -1.6510   -5.5800    0.1480 C   0  0  0  0  0  0  0  0  0  0  0  0
   -2.6350   -4.9500   -0.6950 O   0  0  0  0  0  0  0  0  0  0  0  0
   -3.2660    2.4770   -1.5480 C   0  0  0  0  0  0  0  0  0  0  0  0
   -2.5220    3.4070   -0.9050 O   0  0  0  0  0  0  0  0  0  0  0  0
   -1.3560    2.7860   -0.2590 C   0  0  0  0  0  0  0  0  0  0  0  0
   -4.4880    0.2120   -0.1620 C   0  0  0  0  0  0  0  0  0  0  0  0
   -5.7380    0.6910   -0.5040 C   0  0  0  0  0  0  0  0  0  0  0  0
   -6.6800    0.9440    0.4820 C   0  0  0  0  0  0  0  0  0  0  0  0
   -6.3640    0.7150    1.8160 C   0  0  0  0  0  0  0  0  0  0  0  0
   -5.1060    0.2330    2.1560 C   0  0  0  0  0  0  0  0  0  0  0  0
   -4.1720   -0.0230    1.1630 C   0  0  0  0  0  0  0  0  0  0  0  0
   -4.3060    2.6810   -2.1270 O   0  0  0  0  0  0  0  0  0  0  0  0
   -4.7920    0.0070    3.4600 O   0  0  0  0  0  0  0  0  0  0  0  0
   -3.4810   -0.4890    3.7360 C   0  0  0  0  0  0  0  0  0  0  0  0
   -7.2850    0.9630    2.7870 O   0  0  0  0  0  0  0  0  0  0  0  0
   -7.9090    1.4160    0.1450 O   0  0  0  0  0  0  0  0  0  0  0  0
   -8.1630    1.6290   -1.2450 C   0  0  0  0  0  0  0  0  0  0  0  0
    0.2160    0.6030   -1.1810 O   0  0  0  0  0  0  0  0  0  0  0  0
    1.5580    0.1670   -0.9540 C   0  0  2  0  0  0  0  0  0  0  0  0
    2.1110    0.8890    0.1520 O   0  0  0  0  0  0  0  0  0  0  0  0
    3.4490    0.5080    0.4630 C   0  0  1  0  0  0  0  0  0  0  0  0
    4.3500    0.8290   -0.7370 C   0  0  2  0  0  0  0  0  0  0  0  0
    3.8540    0.0350   -1.9460 C   0  0  1  0  0  0  0  0  0  0  0  0
    2.3930    0.4170   -2.2120 C   0  0  1  0  0  0  0  0  0  0  0  0
    3.9740    1.2710    1.6790 C   0  0  0  0  0  0  0  0  0  0  0  0
    5.3500    0.9190    1.8720 O   0  0  0  0  0  0  0  0  0  0  0  0
    6.1870    1.1750    0.7440 C   0  0  2  0  0  0  0  0  0  0  0  0
    5.6920    0.4770   -0.4040 O   0  0  0  0  0  0  0  0  0  0  0  0
    7.5880    0.7090    1.0460 C   0  0  0  0  0  0  0  0  0  0  0  0
    8.4690   -0.5130    0.1380 S   0  0  0  0  0  0  0  0  0  0  0  0
    9.8640   -0.3350    1.1940 C   0  0  0  0  0  0  0  0  0  0  0  0
    9.6070    0.5860    2.1240 C   0  0  0  0  0  0  0  0  0  0  0  0
    8.3530    1.1660    2.0390 C   0  0  0  0  0  0  0  0  0  0  0  0
    4.6500    0.3550   -3.0890 O   0  0  0  0  0  0  0  0  0  0  0  0
    1.8820   -0.3750   -3.2860 O   0  0  0  0  0  0  0  0  0  0  0  0
   -4.1150   -2.6300   -1.3480 H   0  0  0  0  0  0  0  0  0  0  0  0
    0.4590   -2.0440    0.3640 H   0  0  0  0  0  0  0  0  0  0  0  0
   -3.9720   -0.2930   -2.1750 H   0  0  0  0  0  0  0  0  0  0  0  0
   -1.8820    0.9900   -2.2430 H   0  0  0  0  0  0  0  0  0  0  0  0
   -2.4440    1.1940    0.7950 H   0  0  0  0  0  0  0  0  0  0  0  0
   -0.1440    0.3090    0.8360 H   0  0  0  0  0  0  0  0  0  0  0  0
   -1.3780   -6.5580   -0.2500 H   0  0  0  0  0  0  0  0  0  0  0  0
   -2.0190   -5.6710    1.1700 H   0  0  0  0  0  0  0  0  0  0  0  0
   -1.1560    3.2520    0.7060 H   0  0  0  0  0  0  0  0  0  0  0  0
   -0.4810    2.8440   -0.9050 H   0  0  0  0  0  0  0  0  0  0  0  0
   -5.9820    0.8690   -1.5410 H   0  0  0  0  0  0  0  0  0  0  0  0
   -3.1950   -0.4020    1.4260 H   0  0  0  0  0  0  0  0  0  0  0  0
   -3.3400   -1.4450    3.2310 H   0  0  0  0  0  0  0  0  0  0  0  0
   -2.7400    0.2250    3.3750 H   0  0  0  0  0  0  0  0  0  0  0  0
   -3.3620   -0.6240    4.8110 H   0  0  0  0  0  0  0  0  0  0  0  0
   -7.8500    0.2060    2.9960 H   0  0  0  0  0  0  0  0  0  0  0  0
   -7.4530    2.3560   -1.6380 H   0  0  0  0  0  0  0  0  0  0  0  0
   -8.0540    0.6870   -1.7830 H   0  0  0  0  0  0  0  0  0  0  0  0
   -9.1780    2.0060   -1.3760 H   0  0  0  0  0  0  0  0  0  0  0  0
    1.5590   -0.8990   -0.7270 H   0  0  0  0  0  0  0  0  0  0  0  0
    3.4830   -0.5630    0.6650 H   0  0  0  0  0  0  0  0  0  0  0  0
    4.2970    1.8960   -0.9560 H   0  0  0  0  0  0  0  0  0  0  0  0
    3.9220   -1.0320   -1.7360 H   0  0  0  0  0  0  0  0  0  0  0  0
    2.3370    1.4720   -2.4810 H   0  0  0  0  0  0  0  0  0  0  0  0
    3.8900    2.3430    1.5050 H   0  0  0  0  0  0  0  0  0  0  0  0
    3.3970    0.9950    2.5620 H   0  0  0  0  0  0  0  0  0  0  0  0
    6.2000    2.2450    0.5380 H   0  0  0  0  0  0  0  0  0  0  0  0
   10.7880   -0.8880    1.1030 H   0  0  0  0  0  0  0  0  0  0  0  0
   10.3240    0.8610    2.8830 H   0  0  0  0  0  0  0  0  0  0  0  0
    8.0180    1.9280    2.7270 H   0  0  0  0  0  0  0  0  0  0  0  0
    4.3890   -0.1150   -3.8930 H   0  0  0  0  0  0  0  0  0  0  0  0
    0.9610   -0.1850   -3.5120 H   0  0  0  0  0  0  0  0  0  0  0  0
  1  2  2  0  0  0  0
  1  6  1  0  0  0  0
  1 11  1  0  0  0  0
  2  3  1  0  0  0  0
  2 13  1  0  0  0  0
  3  4  2  0  0  0  0
  4  5  1  0  0  0  0
  4  7  1  0  0  0  0
  5  6  2  0  0  0  0
  5 10  1  0  0  0  0
  7  8  1  0  0  0  0
  7 17  1  0  0  0  0
  8  9  1  0  0  0  0
  8 14  1  0  0  0  0
  9 10  1  0  0  0  0
  9 16  1  0  0  0  0
 10 29  1  0  0  0  0
 11 12  1  0  0  0  0
 12 13  1  0  0  0  0
 14 15  1  0  0  0  0
 14 23  2  0  0  0  0
 15 16  1  0  0  0  0
 17 18  2  0  0  0  0
 17 22  1  0  0  0  0
 18 19  1  0  0  0  0
 19 20  2  0  0  0  0
 19 27  1  0  0  0  0
 20 21  1  0  0  0  0
 20 26  1  0  0  0  0
 21 22  2  0  0  0  0
 21 24  1  0  0  0  0
 24 25  1  0  0  0  0
 27 28  1  0  0  0  0
 29 30  1  0  0  0  0
 30 31  1  0  0  0  0
 30 35  1  0  0  0  0
 31 32  1  0  0  0  0
 32 33  1  0  0  0  0
 32 36  1  0  0  0  0
 33 34  1  0  0  0  0
 33 39  1  0  0  0  0
 34 35  1  0  0  0  0
 34 45  1  0  0  0  0
 35 46  1  0  0  0  0
 36 37  1  0  0  0  0
 37 38  1  0  0  0  0
 38 39  1  0  0  0  0
 38 40  1  0  0  0  0
 40 41  1  0  0  0  0
 40 44  2  0  0  0  0
 41 42  1  0  0  0  0
 42 43  2  0  0  0  0
 43 44  1  0  0  0  0
  3 47  1  0  0  0  0
  6 48  1  0  0  0  0
  7 49  1  0  0  0  0
  8 50  1  0  0  0  0
  9 51  1  0  0  0  0
 10 52  1  0  0  0  0
 12 53  1  0  0  0  0
 12 54  1  0  0  0  0
 16 55  1  0  0  0  0
 16 56  1  0  0  0  0
 18 57  1  0  0  0  0
 22 58  1  0  0  0  0
 25 59  1  0  0  0  0
 25 60  1  0  0  0  0
 25 61  1  0  0  0  0
 26 62  1  0  0  0  0
 28 63  1  0  0  0  0
 28 64  1  0  0  0  0
 28 65  1  0  0  0  0
 30 66  1  0  0  0  0
 32 67  1  0  0  0  0
 33 68  1  0  0  0  0
 34 69  1  0  0  0  0
 35 70  1  0  0  0  0
 36 71  1  0  0  0  0
 36 72  1  0  0  0  0
 38 73  1  0  0  0  0
 42 74  1  0  0  0  0
 43 75  1  0  0  0  0
 44 76  1  0  0  0  0
 45 77  1  0  0  0  0
 46 78  1  0  0  0  0
M  END
> <OPENEYE_ISO_SMILES>
COc1cc(cc(c1O)OC)[C@@H]2c3cc4c(cc3[C@H]([C@@H]5[C@@H]2C(=O)OC5)O[C@H]6[C@@H]([C@H]([C@H]7[C@H](O6)CO[C@H](O7)c8cccs8)O)O)OCO4

> <OPENEYE_INCHI>
InChI=1S/C32H32O13S/c1-37-19-6-13(7-20(38-2)25(19)33)23-14-8-17-18(42-12-41-17)9-15(14)28(16-10-39-30(36)24(16)23)44-32-27(35)26(34)29-21(43-32)11-40-31(45-29)22-4-3-5-46-22/h3-9,16,21,23-24,26-29,31-35H,10-12H2,1-2H3/t16-,21+,23+,24-,26+,27+,28+,29+,31+,32-/m0/s1

> <OPENEYE_INCHIKEY>
NRUKOCRGYNPUPR-QBPJDGROSA-N

> <FORMULA>
C32H32O13S

$$$$
