DM5
  -OEChem-11252216183D

 63 67  0     1  0  0  0  0  0999 V2000
   -0.4810   -0.6010   -6.3180 C   0  0  0  0  0  0  0  0  0  0  0  0
   -1.6680   -0.4920   -7.0210 C   0  0  0  0  0  0  0  0  0  0  0  0
   -2.8040    0.0000   -6.4060 C   0  0  0  0  0  0  0  0  0  0  0  0
   -2.7710    0.3900   -5.0790 C   0  0  0  0  0  0  0  0  0  0  0  0
   -1.5860    0.2860   -4.3570 C   0  0  0  0  0  0  0  0  0  0  0  0
   -1.5310    0.6950   -2.9360 C   0  0  0  0  0  0  0  0  0  0  0  0
   -2.4310    1.3530   -2.4500 O   0  0  0  0  0  0  0  0  0  0  0  0
   -0.3720    0.2960   -2.1170 C   0  0  0  0  0  0  0  0  0  0  0  0
   -0.4040    0.4080   -0.7300 C   0  0  0  0  0  0  0  0  0  0  0  0
   -1.5140    0.8930   -0.1200 O   0  0  0  0  0  0  0  0  0  0  0  0
    0.7020    0.0240    0.0390 C   0  0  0  0  0  0  0  0  0  0  0  0
    0.5920    0.1820    1.5340 C   0  0  1  0  0  0  0  0  0  0  0  0
   -0.7030   -0.2440    1.9590 O   0  0  0  0  0  0  0  0  0  0  0  0
    1.6550   -0.6530    2.2430 C   0  0  0  0  0  0  0  0  0  0  0  0
    3.0180   -0.3300    1.6190 C   0  0  2  0  0  0  0  0  0  0  0  0
    4.0580   -0.9240    2.3980 O   0  0  0  0  0  0  0  0  0  0  0  0
    3.2110    1.1630    1.5670 C   0  0  0  0  0  0  0  0  0  0  0  0
    2.9410    1.7720    0.5600 O   0  0  0  0  0  0  0  0  0  0  0  0
    3.7430    1.8960    2.7720 C   0  0  0  0  0  0  0  0  0  0  0  0
    3.0450   -0.9020    0.2030 C   0  0  0  0  0  0  0  0  0  0  0  0
    1.8270   -0.4660   -0.5700 C   0  0  0  0  0  0  0  0  0  0  0  0
    1.8770   -0.5820   -1.9670 C   0  0  0  0  0  0  0  0  0  0  0  0
    2.9950   -1.0660   -2.5630 O   0  0  0  0  0  0  0  0  0  0  0  0
    0.7870   -0.2050   -2.7450 C   0  0  0  0  0  0  0  0  0  0  0  0
    0.8290   -0.3240   -4.2140 C   0  0  0  0  0  0  0  0  0  0  0  0
    1.8850   -0.5100   -4.7870 O   0  0  0  0  0  0  0  0  0  0  0  0
   -0.4300   -0.2140   -4.9830 C   0  0  0  0  0  0  0  0  0  0  0  0
   -1.2240    0.7890    2.7970 C   0  0  1  0  0  0  0  0  0  0  0  0
   -2.7240    0.5650    3.0050 C   0  0  0  0  0  0  0  0  0  0  0  0
   -2.9390   -0.8110    3.6440 C   0  0  2  0  0  0  0  0  0  0  0  0
   -4.3580   -0.9770    3.9890 N   0  0  0  0  0  0  0  0  0  0  0  0
   -2.0840   -0.9000    4.9130 C   0  0  2  0  0  0  0  0  0  0  0  0
   -2.5700    0.0280    5.8830 O   0  0  0  0  0  0  0  0  0  0  0  0
   -0.6330   -0.5670    4.5600 C   0  0  1  0  0  0  0  0  0  0  0  0
   -0.5530    0.7640    4.0550 O   0  0  0  0  0  0  0  0  0  0  0  0
    0.2350   -0.6880    5.8130 C   0  0  0  0  0  0  0  0  0  0  0  0
    0.4030   -0.9860   -6.8040 H   0  0  0  0  0  0  0  0  0  0  0  0
   -1.7070   -0.7930   -8.0580 H   0  0  0  0  0  0  0  0  0  0  0  0
   -3.7240    0.0820   -6.9660 H   0  0  0  0  0  0  0  0  0  0  0  0
   -3.6620    0.7750   -4.6050 H   0  0  0  0  0  0  0  0  0  0  0  0
   -2.1200    0.1480   -0.0100 H   0  0  0  0  0  0  0  0  0  0  0  0
    0.7280    1.2320    1.7950 H   0  0  0  0  0  0  0  0  0  0  0  0
    1.6700   -0.4060    3.3050 H   0  0  0  0  0  0  0  0  0  0  0  0
    1.4350   -1.7130    2.1150 H   0  0  0  0  0  0  0  0  0  0  0  0
    4.8940   -0.6950    1.9700 H   0  0  0  0  0  0  0  0  0  0  0  0
    3.8140    2.9600    2.5470 H   0  0  0  0  0  0  0  0  0  0  0  0
    3.0680    1.7470    3.6150 H   0  0  0  0  0  0  0  0  0  0  0  0
    4.7310    1.5110    3.0250 H   0  0  0  0  0  0  0  0  0  0  0  0
    3.9410   -0.5510   -0.3080 H   0  0  0  0  0  0  0  0  0  0  0  0
    3.0660   -1.9910    0.2570 H   0  0  0  0  0  0  0  0  0  0  0  0
    2.8850   -2.0240   -2.6260 H   0  0  0  0  0  0  0  0  0  0  0  0
   -1.0650    1.7560    2.3200 H   0  0  0  0  0  0  0  0  0  0  0  0
   -3.1200    1.3390    3.6620 H   0  0  0  0  0  0  0  0  0  0  0  0
   -3.2350    0.6050    2.0430 H   0  0  0  0  0  0  0  0  0  0  0  0
   -2.6390   -1.5900    2.9430 H   0  0  0  0  0  0  0  0  0  0  0  0
   -4.8770   -0.8970    3.1270 H   0  0  0  0  0  0  0  0  0  0  0  0
   -4.4690   -1.9280    4.3070 H   0  0  0  0  0  0  0  0  0  0  0  0
   -2.1370   -1.9110    5.3170 H   0  0  0  0  0  0  0  0  0  0  0  0
   -2.0050   -0.0600    6.6630 H   0  0  0  0  0  0  0  0  0  0  0  0
   -0.2750   -1.2640    3.8020 H   0  0  0  0  0  0  0  0  0  0  0  0
    1.2700   -0.4530    5.5630 H   0  0  0  0  0  0  0  0  0  0  0  0
   -0.1210    0.0080    6.5720 H   0  0  0  0  0  0  0  0  0  0  0  0
    0.1770   -1.7060    6.1990 H   0  0  0  0  0  0  0  0  0  0  0  0
  1  2  2  0  0  0  0
  1 27  1  0  0  0  0
  1 37  1  0  0  0  0
  2  3  1  0  0  0  0
  2 38  1  0  0  0  0
  3  4  2  0  0  0  0
  3 39  1  0  0  0  0
  4  5  1  0  0  0  0
  4 40  1  0  0  0  0
  5  6  1  0  0  0  0
  5 27  2  0  0  0  0
  6  7  2  0  0  0  0
  6  8  1  0  0  0  0
  8  9  2  0  0  0  0
  8 24  1  0  0  0  0
  9 10  1  0  0  0  0
  9 11  1  0  0  0  0
 10 41  1  0  0  0  0
 11 12  1  0  0  0  0
 11 21  2  0  0  0  0
 12 13  1  0  0  0  0
 12 14  1  0  0  0  0
 12 42  1  0  0  0  0
 13 28  1  0  0  0  0
 14 15  1  0  0  0  0
 14 43  1  0  0  0  0
 14 44  1  0  0  0  0
 15 16  1  0  0  0  0
 15 17  1  0  0  0  0
 15 20  1  0  0  0  0
 16 45  1  0  0  0  0
 17 18  2  0  0  0  0
 17 19  1  0  0  0  0
 19 46  1  0  0  0  0
 19 47  1  0  0  0  0
 19 48  1  0  0  0  0
 20 21  1  0  0  0  0
 20 49  1  0  0  0  0
 20 50  1  0  0  0  0
 21 22  1  0  0  0  0
 22 23  1  0  0  0  0
 22 24  2  0  0  0  0
 23 51  1  0  0  0  0
 24 25  1  0  0  0  0
 25 26  2  0  0  0  0
 25 27  1  0  0  0  0
 28 29  1  0  0  0  0
 28 35  1  0  0  0  0
 28 52  1  0  0  0  0
 29 30  1  0  0  0  0
 29 53  1  0  0  0  0
 29 54  1  0  0  0  0
 30 31  1  0  0  0  0
 30 32  1  0  0  0  0
 30 55  1  0  0  0  0
 31 56  1  0  0  0  0
 31 57  1  0  0  0  0
 32 33  1  0  0  0  0
 32 34  1  0  0  0  0
 32 58  1  0  0  0  0
 33 59  1  0  0  0  0
 34 35  1  0  0  0  0
 34 36  1  0  0  0  0
 34 60  1  0  0  0  0
 36 61  1  0  0  0  0
 36 62  1  0  0  0  0
 36 63  1  0  0  0  0
M  END
> <OPENEYE_ISO_SMILES>
C[C@H]1[C@H]([C@H](C[C@@H](O1)O[C@H]2C[C@@](Cc3c2c(c4c(c3O)C(=O)c5ccccc5C4=O)O)(C(=O)C)O)N)O

> <OPENEYE_INCHI>
InChI=1S/C26H27NO9/c1-10-21(29)15(27)7-17(35-10)36-16-9-26(34,11(2)28)8-14-18(16)25(33)20-19(24(14)32)22(30)12-5-3-4-6-13(12)23(20)31/h3-6,10,15-17,21,29,32-34H,7-9,27H2,1-2H3/t10-,15-,16-,17-,21+,26-/m0/s1

> <OPENEYE_INCHIKEY>
XDXDZDZNSLXDNA-TZNDIEGXSA-N

> <FORMULA>
C26H27NO9

$$$$
