EHF
  -OEChem-11252216183D

 45 48  0     1  0  0  0  0  0999 V2000
   -6.8320   -0.8630    0.0960 C   0  0  0  0  0  0  0  0  0  0  0  0
   -6.1690   -2.0860    0.0220 C   0  0  0  0  0  0  0  0  0  0  0  0
   -4.8110   -2.1470   -0.0360 C   0  0  0  0  0  0  0  0  0  0  0  0
   -4.0570   -0.9580   -0.0240 C   0  0  0  0  0  0  0  0  0  0  0  0
   -4.7360    0.2850    0.0510 C   0  0  0  0  0  0  0  0  0  0  0  0
   -6.1370    0.3090    0.1110 C   0  0  0  0  0  0  0  0  0  0  0  0
   -2.7250   -0.9910   -0.0800 N   0  0  0  0  0  0  0  0  0  0  0  0
   -2.0060    0.1200   -0.0680 C   0  0  0  0  0  0  0  0  0  0  0  0
   -2.6280    1.3780    0.0050 C   0  0  0  0  0  0  0  0  0  0  0  0
   -3.9820    1.4760    0.0640 C   0  0  0  0  0  0  0  0  0  0  0  0
   -0.5390    0.3310   -0.1200 C   0  0  0  0  0  0  0  0  0  0  0  0
   -0.2620    1.6680   -0.0820 N   0  0  0  0  0  0  0  0  0  0  0  0
   -1.5280    2.4090   -0.0020 C   0  0  0  0  0  0  0  0  0  0  0  0
    0.4900   -0.5840   -0.1960 C   0  0  0  0  0  0  0  0  0  0  0  0
    1.8160   -0.1430   -0.2340 C   0  0  0  0  0  0  0  0  0  0  0  0
    2.0780    1.1960   -0.1940 C   0  0  0  0  0  0  0  0  0  0  0  0
    1.0120    2.1080   -0.1180 C   0  0  0  0  0  0  0  0  0  0  0  0
    1.2410    3.3060   -0.0830 O   0  0  0  0  0  0  0  0  0  0  0  0
    3.5000    1.6920   -0.2330 C   0  0  0  0  0  0  0  0  0  0  0  0
    2.9460   -1.1370   -0.3160 C   0  0  1  0  0  0  0  0  0  0  0  0
    3.7260   -1.1180    0.9740 C   0  0  0  0  0  0  0  0  0  0  0  0
    3.2180   -0.5090    2.0570 O   0  0  0  0  0  0  0  0  0  0  0  0
    4.8080   -1.6530    1.0330 O   0  0  0  0  0  0  0  0  0  0  0  0
    2.4150   -2.4450   -0.5330 O   0  0  0  0  0  0  0  0  0  0  0  0
    3.8710   -0.7630   -1.4760 C   0  0  0  0  0  0  0  0  0  0  0  0
    5.2730   -1.3130   -1.2080 C   0  0  0  0  0  0  0  0  0  0  0  0
    4.3740    0.6720    0.2560 O   0  0  0  0  0  0  0  0  0  0  0  0
   -7.9110   -0.8430    0.1380 H   0  0  0  0  0  0  0  0  0  0  0  0
   -6.7430   -3.0010    0.0120 H   0  0  0  0  0  0  0  0  0  0  0  0
   -4.3130   -3.1040   -0.0930 H   0  0  0  0  0  0  0  0  0  0  0  0
   -6.6620    1.2510    0.1680 H   0  0  0  0  0  0  0  0  0  0  0  0
   -4.4670    2.4400    0.1190 H   0  0  0  0  0  0  0  0  0  0  0  0
   -1.6340    3.0620   -0.8680 H   0  0  0  0  0  0  0  0  0  0  0  0
    0.2720   -1.6410   -0.2260 H   0  0  0  0  0  0  0  0  0  0  0  0
    3.7710    1.9400   -1.2590 H   0  0  0  0  0  0  0  0  0  0  0  0
    3.5920    2.5800    0.3920 H   0  0  0  0  0  0  0  0  0  0  0  0
    3.7550   -0.5230    2.8610 H   0  0  0  0  0  0  0  0  0  0  0  0
    2.0050   -2.5650   -1.4010 H   0  0  0  0  0  0  0  0  0  0  0  0
    3.4830   -1.1890   -2.4010 H   0  0  0  0  0  0  0  0  0  0  0  0
    3.9180    0.3220   -1.5680 H   0  0  0  0  0  0  0  0  0  0  0  0
    5.2260   -2.3980   -1.1160 H   0  0  0  0  0  0  0  0  0  0  0  0
    5.9320   -1.0460   -2.0350 H   0  0  0  0  0  0  0  0  0  0  0  0
    5.6600   -0.8860   -0.2830 H   0  0  0  0  0  0  0  0  0  0  0  0
    5.3130    0.8740    0.1470 H   0  0  0  0  0  0  0  0  0  0  0  0
   -1.5610    2.9960    0.9150 H   0  0  0  0  0  0  0  0  0  0  0  0
  1  6  1  0  0  0  0
  1  2  2  0  0  0  0
  5  6  2  0  0  0  0
  2  3  1  0  0  0  0
  5 10  1  0  0  0  0
  4  5  1  0  0  0  0
  3  4  2  0  0  0  0
  9 10  2  0  0  0  0
  4  7  1  0  0  0  0
  8  9  1  0  0  0  0
  9 13  1  0  0  0  0
  7  8  2  0  0  0  0
  8 11  1  0  0  0  0
 12 13  1  0  0  0  0
 11 12  1  0  0  0  0
 11 14  2  0  0  0  0
 12 17  1  0  0  0  0
 14 15  1  0  0  0  0
 25 26  1  0  0  0  0
 17 18  2  0  0  0  0
 16 17  1  0  0  0  0
 15 16  2  0  0  0  0
 15 20  1  0  0  0  0
 16 19  1  0  0  0  0
 20 25  1  0  0  0  0
 20 24  1  0  0  0  0
 20 21  1  0  0  0  0
 19 27  1  0  0  0  0
 21 23  2  0  0  0  0
 21 22  1  0  0  0  0
  1 28  1  0  0  0  0
  2 29  1  0  0  0  0
  3 30  1  0  0  0  0
  6 31  1  0  0  0  0
 10 32  1  0  0  0  0
 13 33  1  0  0  0  0
 14 34  1  0  0  0  0
 19 35  1  0  0  0  0
 19 36  1  0  0  0  0
 22 37  1  0  0  0  0
 24 38  1  0  0  0  0
 25 39  1  0  0  0  0
 25 40  1  0  0  0  0
 26 41  1  0  0  0  0
 26 42  1  0  0  0  0
 26 43  1  0  0  0  0
 27 44  1  0  0  0  0
 13 45  1  0  0  0  0
M  END
> <OPENEYE_ISO_SMILES>
CC[C@](c1cc-2n(c(=O)c1CO)Cc3c2nc4ccccc4c3)(C(=O)O)O

> <OPENEYE_INCHI>
InChI=1S/C20H18N2O5/c1-2-20(27,19(25)26)14-8-16-17-12(9-22(16)18(24)13(14)10-23)7-11-5-3-4-6-15(11)21-17/h3-8,23,27H,2,9-10H2,1H3,(H,25,26)/t20-/m0/s1

> <OPENEYE_INCHIKEY>
SARNOWGPKQIWFT-FQEVSTJZSA-N

> <FORMULA>
C20H18N2O5

$$$$
