EVP
  -OEChem-11252216183D

 74 80  0     1  0  0  0  0  0999 V2000
    0.7020   -5.6070   -0.0990 C   0  0  0  0  0  0  0  0  0  0  0  0
   -0.4300   -4.7190   -0.1680 O   0  0  0  0  0  0  0  0  0  0  0  0
    1.3120   -3.6170    0.7100 C   0  0  0  0  0  0  0  0  0  0  0  0
    1.5990   -4.9470    0.8140 O   0  0  0  0  0  0  0  0  0  0  0  0
    2.0180   -2.4900    1.0900 C   0  0  0  0  0  0  0  0  0  0  0  0
    1.3720    3.4110    0.8520 O   0  0  0  0  0  0  0  0  0  0  0  0
    1.4980   -1.2220    0.8660 C   0  0  0  0  0  0  0  0  0  0  0  0
    3.0580    2.7300    2.2310 O   0  0  0  0  0  0  0  0  0  0  0  0
    2.3290   -0.0390    1.3230 C   0  0  2  0  0  0  0  0  0  0  0  0
    4.0310   -0.0480   -3.2510 O   0  0  0  0  0  0  0  0  0  0  0  0
    1.4130    1.1650    1.4090 C   0  0  1  0  0  0  0  0  0  0  0  0
    6.4490    0.9550   -2.3990 O   0  0  0  0  0  0  0  0  0  0  0  0
    2.0720    2.5030    1.5710 C   0  0  0  0  0  0  0  0  0  0  0  0
    6.8500    1.4730    0.2750 O   0  0  0  0  0  0  0  0  0  0  0  0
    0.2730    2.7640    0.1230 C   0  0  0  0  0  0  0  0  0  0  0  0
   -1.3430    0.5720    0.9480 O   0  0  0  0  0  0  0  0  0  0  0  0
    0.7490    1.3080    0.0020 C   0  0  2  0  0  0  0  0  0  0  0  0
   -3.1090    0.8760   -0.5460 O   0  0  0  0  0  0  0  0  0  0  0  0
   -0.3550    0.2680   -0.0380 C   0  0  1  0  0  0  0  0  0  0  0  0
   -6.1820    0.9380   -2.5480 O   0  0  0  0  0  0  0  0  0  0  0  0
    0.2690   -1.0830    0.2580 C   0  0  0  0  0  0  0  0  0  0  0  0
   -6.7290    0.4890   -0.3130 O   0  0  0  0  0  0  0  0  0  0  0  0
   -0.4480   -2.2110   -0.1170 C   0  0  0  0  0  0  0  0  0  0  0  0
   -5.9300    0.3490    2.4530 O   0  0  0  0  0  0  0  0  0  0  0  0
    0.0650   -3.4760    0.1040 C   0  0  0  0  0  0  0  0  0  0  0  0
   -3.1960   -0.4020    2.8920 O   0  0  0  0  0  0  0  0  0  0  0  0
    3.4300    0.2270    0.3290 C   0  0  0  0  0  0  0  0  0  0  0  0
    3.2240   -0.0330   -1.0130 C   0  0  0  0  0  0  0  0  0  0  0  0
    4.2340    0.2090   -1.9310 C   0  0  0  0  0  0  0  0  0  0  0  0
    5.4550    0.7160   -1.5010 C   0  0  0  0  0  0  0  0  0  0  0  0
    5.6570    0.9770   -0.1510 C   0  0  0  0  0  0  0  0  0  0  0  0
    4.6400    0.7360    0.7600 C   0  0  0  0  0  0  0  0  0  0  0  0
    2.7530   -0.5680   -3.6220 C   0  0  0  0  0  0  0  0  0  0  0  0
    6.9880    1.7170    1.6760 C   0  0  0  0  0  0  0  0  0  0  0  0
   -2.6620    0.1470    0.6010 C   0  0  2  0  0  0  0  0  0  0  0  0
   -4.4170    0.5060   -0.9770 C   0  0  2  0  0  0  0  0  0  0  0  0
   -4.8260    1.2780   -2.2320 C   0  0  0  0  0  0  0  0  0  0  0  0
   -7.1150    1.1960   -1.4970 C   0  0  2  0  0  0  0  0  0  0  0  0
   -5.4180    0.8300    0.1390 C   0  0  2  0  0  0  0  0  0  0  0  0
   -5.0380    0.0270    1.3840 C   0  0  1  0  0  0  0  0  0  0  0  0
   -3.6030    0.3980    1.7800 C   0  0  1  0  0  0  0  0  0  0  0  0
   -8.5080    0.7350   -1.9310 C   0  0  0  0  0  0  0  0  0  0  0  0
    0.4020   -6.5790    0.2930 H   0  0  0  0  0  0  0  0  0  0  0  0
    1.1640   -5.7140   -1.0800 H   0  0  0  0  0  0  0  0  0  0  0  0
    2.9810   -2.5980    1.5660 H   0  0  0  0  0  0  0  0  0  0  0  0
    2.7590   -0.2460    2.3030 H   0  0  0  0  0  0  0  0  0  0  0  0
    0.6620    1.0150    2.1850 H   0  0  0  0  0  0  0  0  0  0  0  0
    6.4350    1.8470   -2.7730 H   0  0  0  0  0  0  0  0  0  0  0  0
   -0.6540    2.8200    0.6930 H   0  0  0  0  0  0  0  0  0  0  0  0
    0.1480    3.2110   -0.8630 H   0  0  0  0  0  0  0  0  0  0  0  0
    1.4660    1.1790   -0.8090 H   0  0  0  0  0  0  0  0  0  0  0  0
   -0.8140    0.2540   -1.0270 H   0  0  0  0  0  0  0  0  0  0  0  0
   -1.4150   -2.1010   -0.5840 H   0  0  0  0  0  0  0  0  0  0  0  0
   -5.7450   -0.1260    3.2750 H   0  0  0  0  0  0  0  0  0  0  0  0
   -2.2980   -0.2190    3.2000 H   0  0  0  0  0  0  0  0  0  0  0  0
    2.2750   -0.4270   -1.3470 H   0  0  0  0  0  0  0  0  0  0  0  0
    4.7960    0.9430    1.8090 H   0  0  0  0  0  0  0  0  0  0  0  0
    2.5830   -1.5150   -3.1090 H   0  0  0  0  0  0  0  0  0  0  0  0
    1.9760    0.1420   -3.3390 H   0  0  0  0  0  0  0  0  0  0  0  0
    2.7240   -0.7280   -4.6990 H   0  0  0  0  0  0  0  0  0  0  0  0
    7.9840    2.1100    1.8800 H   0  0  0  0  0  0  0  0  0  0  0  0
    6.2390    2.4430    1.9940 H   0  0  0  0  0  0  0  0  0  0  0  0
    6.8460    0.7850    2.2230 H   0  0  0  0  0  0  0  0  0  0  0  0
   -2.6500   -0.9180    0.3700 H   0  0  0  0  0  0  0  0  0  0  0  0
   -4.4410   -0.5640   -1.1850 H   0  0  0  0  0  0  0  0  0  0  0  0
   -4.1750    1.0010   -3.0620 H   0  0  0  0  0  0  0  0  0  0  0  0
   -4.7500    2.3490   -2.0460 H   0  0  0  0  0  0  0  0  0  0  0  0
   -7.1380    2.2650   -1.2890 H   0  0  0  0  0  0  0  0  0  0  0  0
   -5.3780    1.8950    0.3670 H   0  0  0  0  0  0  0  0  0  0  0  0
   -5.0980   -1.0390    1.1650 H   0  0  0  0  0  0  0  0  0  0  0  0
   -3.5650    1.4510    2.0580 H   0  0  0  0  0  0  0  0  0  0  0  0
   -8.4870   -0.3330   -2.1460 H   0  0  0  0  0  0  0  0  0  0  0  0
   -9.2210    0.9310   -1.1300 H   0  0  0  0  0  0  0  0  0  0  0  0
   -8.8080    1.2800   -2.8260 H   0  0  0  0  0  0  0  0  0  0  0  0
  1  2  1  0  0  0  0
  1  4  1  0  0  0  0
  2 25  1  0  0  0  0
  3  4  1  0  0  0  0
  3  5  2  0  0  0  0
  3 25  1  0  0  0  0
  5  7  1  0  0  0  0
  6 13  1  0  0  0  0
  6 15  1  0  0  0  0
  7  9  1  0  0  0  0
  7 21  2  0  0  0  0
  8 13  2  0  0  0  0
  9 11  1  0  0  0  0
  9 27  1  0  0  0  0
 10 29  1  0  0  0  0
 10 33  1  0  0  0  0
 11 13  1  0  0  0  0
 11 17  1  0  0  0  0
 12 30  1  0  0  0  0
 14 31  1  0  0  0  0
 14 34  1  0  0  0  0
 15 17  1  0  0  0  0
 16 19  1  0  0  0  0
 16 35  1  0  0  0  0
 17 19  1  0  0  0  0
 18 35  1  0  0  0  0
 18 36  1  0  0  0  0
 19 21  1  0  0  0  0
 20 37  1  0  0  0  0
 20 38  1  0  0  0  0
 21 23  1  0  0  0  0
 22 38  1  0  0  0  0
 22 39  1  0  0  0  0
 23 25  2  0  0  0  0
 24 40  1  0  0  0  0
 26 41  1  0  0  0  0
 27 28  2  0  0  0  0
 27 32  1  0  0  0  0
 28 29  1  0  0  0  0
 29 30  2  0  0  0  0
 30 31  1  0  0  0  0
 31 32  2  0  0  0  0
 35 41  1  0  0  0  0
 36 37  1  0  0  0  0
 36 39  1  0  0  0  0
 38 42  1  0  0  0  0
 39 40  1  0  0  0  0
 40 41  1  0  0  0  0
  1 43  1  0  0  0  0
  1 44  1  0  0  0  0
  5 45  1  0  0  0  0
  9 46  1  0  0  0  0
 11 47  1  0  0  0  0
 12 48  1  0  0  0  0
 15 49  1  0  0  0  0
 15 50  1  0  0  0  0
 17 51  1  0  0  0  0
 19 52  1  0  0  0  0
 23 53  1  0  0  0  0
 24 54  1  0  0  0  0
 26 55  1  0  0  0  0
 28 56  1  0  0  0  0
 32 57  1  0  0  0  0
 33 58  1  0  0  0  0
 33 59  1  0  0  0  0
 33 60  1  0  0  0  0
 34 61  1  0  0  0  0
 34 62  1  0  0  0  0
 34 63  1  0  0  0  0
 35 64  1  0  0  0  0
 36 65  1  0  0  0  0
 37 66  1  0  0  0  0
 37 67  1  0  0  0  0
 38 68  1  0  0  0  0
 39 69  1  0  0  0  0
 40 70  1  0  0  0  0
 41 71  1  0  0  0  0
 42 72  1  0  0  0  0
 42 73  1  0  0  0  0
 42 74  1  0  0  0  0
M  END
> <OPENEYE_ISO_SMILES>
C[C@@H]1OC[C@@H]2[C@@H](O1)[C@@H]([C@H]([C@@H](O2)O[C@@H]3c4cc5c(cc4[C@H]([C@@H]6[C@@H]3COC6=O)c7cc(c(c(c7)OC)O)OC)OCO5)O)O

> <OPENEYE_INCHI>
InChI=1S/C29H32O13/c1-11-36-9-20-27(40-11)24(31)25(32)29(41-20)42-26-14-7-17-16(38-10-39-17)6-13(14)21(22-15(26)8-37-28(22)33)12-4-18(34-2)23(30)19(5-12)35-3/h4-7,11,15,20-22,24-27,29-32H,8-10H2,1-3H3/t11-,15+,20-,21-,22+,24-,25-,26-,27-,29+/m1/s1

> <OPENEYE_INCHIKEY>
VJJPUSNTGOMMGY-MRVIYFEKSA-N

> <FORMULA>
C29H32O13

$$$$
