HSA
  -OEChem-11252216193D

 26 26  0     1  0  0  0  0  0999 V2000
   -0.2160   -0.9680   -1.6330 C   0  0  0  0  0  0  0  0  0  0  0  0
   -0.1740   -0.4130   -3.0330 C   0  0  0  0  0  0  0  0  0  0  0  0
    0.7200   -0.7380   -3.9860 C   0  0  0  0  0  0  0  0  0  0  0  0
   -1.0230    0.4850   -3.5510 N   0  0  0  0  0  0  0  0  0  0  0  0
   -0.6840    0.7360   -4.7860 C   0  0  0  0  0  0  0  0  0  0  0  0
    0.3970   -0.0080   -5.0980 N   0  0  0  0  0  0  0  0  0  0  0  0
   -0.1040   -0.3880    0.7940 C   0  0  0  0  0  0  0  0  0  0  0  0
    0.0410    0.6780    1.7330 O   0  0  0  0  0  0  0  0  0  0  0  0
   -0.0120    0.0170    3.2000 P   0  0  0  0  0  0  0  0  0  0  0  0
    1.0880   -0.9610    3.3420 O   0  0  0  0  0  0  0  0  0  0  0  0
    0.1460    1.1680    4.3140 O   0  0  0  0  0  0  0  0  0  0  0  0
   -1.4240   -0.7300    3.4000 O   0  0  0  0  0  0  0  0  0  0  0  0
    1.2250    0.8480   -0.8480 N   0  0  0  0  0  0  0  0  0  0  0  0
   -0.0600    0.1740   -0.6270 C   0  0  1  0  0  0  0  0  0  0  0  0
    0.5950   -1.6820   -1.5000 H   0  0  0  0  0  0  0  0  0  0  0  0
   -1.1710   -1.4680   -1.4690 H   0  0  0  0  0  0  0  0  0  0  0  0
    1.5360   -1.4390   -3.8910 H   0  0  0  0  0  0  0  0  0  0  0  0
   -1.1880    1.4230   -5.4500 H   0  0  0  0  0  0  0  0  0  0  0  0
    0.8580   -0.0240   -5.9510 H   0  0  0  0  0  0  0  0  0  0  0  0
   -1.0580   -0.8890    0.9580 H   0  0  0  0  0  0  0  0  0  0  0  0
    0.7080   -1.1030    0.9270 H   0  0  0  0  0  0  0  0  0  0  0  0
    0.1080    0.7310    5.1760 H   0  0  0  0  0  0  0  0  0  0  0  0
   -2.1130   -0.0590    3.3000 H   0  0  0  0  0  0  0  0  0  0  0  0
    1.9440    0.1520   -0.7150 H   0  0  0  0  0  0  0  0  0  0  0  0
    1.2520    1.1100   -1.8220 H   0  0  0  0  0  0  0  0  0  0  0  0
   -0.8720    0.8880   -0.7600 H   0  0  0  0  0  0  0  0  0  0  0  0
  1  2  1  0  0  0  0
  1 14  1  0  0  0  0
  1 15  1  0  0  0  0
  1 16  1  0  0  0  0
  2  3  2  0  0  0  0
  2  4  1  0  0  0  0
  3  6  1  0  0  0  0
  3 17  1  0  0  0  0
  4  5  2  0  0  0  0
  5  6  1  0  0  0  0
  5 18  1  0  0  0  0
  6 19  1  0  0  0  0
  7  8  1  0  0  0  0
  7 14  1  0  0  0  0
  7 20  1  0  0  0  0
  7 21  1  0  0  0  0
  8  9  1  0  0  0  0
  9 10  2  0  0  0  0
  9 11  1  0  0  0  0
  9 12  1  0  0  0  0
 11 22  1  0  0  0  0
 12 23  1  0  0  0  0
 13 14  1  0  0  0  0
 13 24  1  0  0  0  0
 13 25  1  0  0  0  0
 14 26  1  0  0  0  0
M  END
> <OPENEYE_ISO_SMILES>
c1c(nc[nH]1)C[C@@H](COP(=O)(O)O)N

> <OPENEYE_INCHI>
InChI=1S/C6H12N3O4P/c7-5(3-13-14(10,11)12)1-6-2-8-4-9-6/h2,4-5H,1,3,7H2,(H,8,9)(H2,10,11,12)/t5-/m0/s1

> <OPENEYE_INCHIKEY>
CWNDERHTHMWBSI-YFKPBYRVSA-N

> <FORMULA>
C6H12N3O4P

$$$$
