MYR
  -OEChem-11252216193D

 44 43  0     0  0  0  0  0  0999 V2000
    6.9630   -0.1210    0.0010 C   0  0  0  0  0  0  0  0  0  0  0  0
    6.8890   -1.3270    0.0010 O   0  0  0  0  0  0  0  0  0  0  0  0
    8.1650    0.4770   -0.0040 O   0  0  0  0  0  0  0  0  0  0  0  0
    5.7070    0.7120    0.0020 C   0  0  0  0  0  0  0  0  0  0  0  0
    4.4850   -0.2090    0.0010 C   0  0  0  0  0  0  0  0  0  0  0  0
    3.2100    0.6370    0.0010 C   0  0  0  0  0  0  0  0  0  0  0  0
    1.9880   -0.2840    0.0010 C   0  0  0  0  0  0  0  0  0  0  0  0
    0.7120    0.5610    0.0010 C   0  0  0  0  0  0  0  0  0  0  0  0
   -0.5100   -0.3590    0.0000 C   0  0  0  0  0  0  0  0  0  0  0  0
   -1.7850    0.4860    0.0010 C   0  0  0  0  0  0  0  0  0  0  0  0
   -3.0070   -0.4350   -0.0000 C   0  0  0  0  0  0  0  0  0  0  0  0
   -4.2820    0.4100    0.0000 C   0  0  0  0  0  0  0  0  0  0  0  0
   -5.5040   -0.5100   -0.0010 C   0  0  0  0  0  0  0  0  0  0  0  0
   -6.7800    0.3350   -0.0000 C   0  0  0  0  0  0  0  0  0  0  0  0
   -8.0020   -0.5860   -0.0010 C   0  0  0  0  0  0  0  0  0  0  0  0
   -9.2770    0.2600   -0.0010 C   0  0  0  0  0  0  0  0  0  0  0  0
    8.9420   -0.0980   -0.0080 H   0  0  0  0  0  0  0  0  0  0  0  0
    5.6880    1.3400    0.8920 H   0  0  0  0  0  0  0  0  0  0  0  0
    5.6880    1.3410   -0.8880 H   0  0  0  0  0  0  0  0  0  0  0  0
    4.5040   -0.8370   -0.8900 H   0  0  0  0  0  0  0  0  0  0  0  0
    4.5040   -0.8380    0.8910 H   0  0  0  0  0  0  0  0  0  0  0  0
    3.1910    1.2650    0.8910 H   0  0  0  0  0  0  0  0  0  0  0  0
    3.1910    1.2660   -0.8880 H   0  0  0  0  0  0  0  0  0  0  0  0
    2.0070   -0.9130   -0.8900 H   0  0  0  0  0  0  0  0  0  0  0  0
    2.0070   -0.9140    0.8900 H   0  0  0  0  0  0  0  0  0  0  0  0
    0.6930    1.1900    0.8910 H   0  0  0  0  0  0  0  0  0  0  0  0
    0.6930    1.1910   -0.8890 H   0  0  0  0  0  0  0  0  0  0  0  0
   -0.4910   -0.9880   -0.8900 H   0  0  0  0  0  0  0  0  0  0  0  0
   -0.4910   -0.9890    0.8900 H   0  0  0  0  0  0  0  0  0  0  0  0
   -1.8040    1.1140    0.8910 H   0  0  0  0  0  0  0  0  0  0  0  0
   -1.8040    1.1150   -0.8890 H   0  0  0  0  0  0  0  0  0  0  0  0
   -2.9880   -1.0630   -0.8910 H   0  0  0  0  0  0  0  0  0  0  0  0
   -2.9880   -1.0640    0.8900 H   0  0  0  0  0  0  0  0  0  0  0  0
   -4.3010    1.0390    0.8910 H   0  0  0  0  0  0  0  0  0  0  0  0
   -4.3010    1.0400   -0.8900 H   0  0  0  0  0  0  0  0  0  0  0  0
   -5.4850   -1.1390   -0.8910 H   0  0  0  0  0  0  0  0  0  0  0  0
   -5.4850   -1.1400    0.8890 H   0  0  0  0  0  0  0  0  0  0  0  0
   -6.7990    0.9640    0.8900 H   0  0  0  0  0  0  0  0  0  0  0  0
   -6.7990    0.9650   -0.8900 H   0  0  0  0  0  0  0  0  0  0  0  0
   -7.9830   -1.2140   -0.8910 H   0  0  0  0  0  0  0  0  0  0  0  0
   -7.9830   -1.2150    0.8890 H   0  0  0  0  0  0  0  0  0  0  0  0
   -9.2960    0.8890   -0.8900 H   0  0  0  0  0  0  0  0  0  0  0  0
  -10.1480   -0.3960   -0.0010 H   0  0  0  0  0  0  0  0  0  0  0  0
   -9.2960    0.8880    0.8900 H   0  0  0  0  0  0  0  0  0  0  0  0
  1  2  2  0  0  0  0
  1  3  1  0  0  0  0
  1  4  1  0  0  0  0
  3 17  1  0  0  0  0
  4  5  1  0  0  0  0
  4 18  1  0  0  0  0
  4 19  1  0  0  0  0
  5  6  1  0  0  0  0
  5 20  1  0  0  0  0
  5 21  1  0  0  0  0
  6  7  1  0  0  0  0
  6 22  1  0  0  0  0
  6 23  1  0  0  0  0
  7  8  1  0  0  0  0
  7 24  1  0  0  0  0
  7 25  1  0  0  0  0
  8  9  1  0  0  0  0
  8 26  1  0  0  0  0
  8 27  1  0  0  0  0
  9 10  1  0  0  0  0
  9 28  1  0  0  0  0
  9 29  1  0  0  0  0
 10 11  1  0  0  0  0
 10 30  1  0  0  0  0
 10 31  1  0  0  0  0
 11 12  1  0  0  0  0
 11 32  1  0  0  0  0
 11 33  1  0  0  0  0
 12 13  1  0  0  0  0
 12 34  1  0  0  0  0
 12 35  1  0  0  0  0
 13 14  1  0  0  0  0
 13 36  1  0  0  0  0
 13 37  1  0  0  0  0
 14 15  1  0  0  0  0
 14 38  1  0  0  0  0
 14 39  1  0  0  0  0
 15 16  1  0  0  0  0
 15 40  1  0  0  0  0
 15 41  1  0  0  0  0
 16 42  1  0  0  0  0
 16 43  1  0  0  0  0
 16 44  1  0  0  0  0
M  END
> <OPENEYE_ISO_SMILES>
CCCCCCCCCCCCCC(=O)O

> <OPENEYE_INCHI>
InChI=1S/C14H28O2/c1-2-3-4-5-6-7-8-9-10-11-12-13-14(15)16/h2-13H2,1H3,(H,15,16)

> <OPENEYE_INCHIKEY>
TUNFSRHWOTWDNC-UHFFFAOYSA-N

> <FORMULA>
C14H28O2

$$$$
