VDX
  -OEChem-11252216213D

 74 76  0     1  0  0  0  0  0999 V2000
   -1.2600    1.7990   -7.7080 O   0  0  0  0  0  0  0  0  0  0  0  0
   -2.8180    0.8190    6.7660 O   0  0  0  0  0  0  0  0  0  0  0  0
   -2.4550   -0.5460   -5.0270 C   0  0  1  0  0  0  0  0  0  0  0  0
   -2.3170    0.0410   -6.4350 C   0  0  0  0  0  0  0  0  0  0  0  0
   -1.2760    1.1610   -6.4290 C   0  0  1  0  0  0  0  0  0  0  0  0
    0.1090    0.5800   -6.1320 C   0  0  0  0  0  0  0  0  0  0  0  0
    0.0500   -0.1380   -4.7990 C   0  0  0  0  0  0  0  0  0  0  0  0
    0.9980    0.0420   -3.8560 C   0  0  0  0  0  0  0  0  0  0  0  0
    0.9060   -0.6700   -2.5800 C   0  0  0  0  0  0  0  0  0  0  0  0
    1.8420   -0.4920   -1.6480 C   0  0  0  0  0  0  0  0  0  0  0  0
    3.0300    0.4370   -1.8530 C   0  0  0  0  0  0  0  0  0  0  0  0
   -1.0920   -1.0500   -4.5850 C   0  0  0  0  0  0  0  0  0  0  0  0
    3.1810    1.3890   -0.6680 C   0  0  0  0  0  0  0  0  0  0  0  0
    3.1230    0.6420    0.6740 C   0  0  0  0  0  0  0  0  0  0  0  0
    1.8010   -0.0740    0.7560 C   0  0  1  0  0  0  0  0  0  0  0  0
    1.8010   -1.1940   -0.3240 C   0  0  1  0  0  0  0  0  0  0  0  0
    0.5100   -1.9410    0.0180 C   0  0  0  0  0  0  0  0  0  0  0  0
    0.5500   -2.0030    1.5710 C   0  0  0  0  0  0  0  0  0  0  0  0
    1.4450   -0.8220    2.0310 C   0  0  2  0  0  0  0  0  0  0  0  0
    0.6740    0.9030    0.4150 C   0  0  0  0  0  0  0  0  0  0  0  0
   -0.9380   -2.2500   -4.0260 C   0  0  0  0  0  0  0  0  0  0  0  0
    0.6720    0.0900    2.9850 C   0  0  2  0  0  0  0  0  0  0  0  0
    1.5480    1.2830    3.3700 C   0  0  0  0  0  0  0  0  0  0  0  0
    0.2930   -0.6920    4.2440 C   0  0  0  0  0  0  0  0  0  0  0  0
   -0.4790    0.2200    5.1980 C   0  0  0  0  0  0  0  0  0  0  0  0
   -0.8580   -0.5610    6.4570 C   0  0  0  0  0  0  0  0  0  0  0  0
   -1.6320    0.3510    7.4110 C   0  0  0  0  0  0  0  0  0  0  0  0
   -2.0100   -0.4300    8.6700 C   0  0  0  0  0  0  0  0  0  0  0  0
   -0.7560    1.5450    7.7960 C   0  0  0  0  0  0  0  0  0  0  0  0
   -2.9160    0.4630   -4.1270 O   0  0  0  0  0  0  0  0  0  0  0  0
   -0.5960    2.5010   -7.6620 H   0  0  0  0  0  0  0  0  0  0  0  0
   -3.3400    0.0370    6.5400 H   0  0  0  0  0  0  0  0  0  0  0  0
   -3.1640   -1.3740   -5.0430 H   0  0  0  0  0  0  0  0  0  0  0  0
   -3.2790    0.4410   -6.7560 H   0  0  0  0  0  0  0  0  0  0  0  0
   -2.0030   -0.7410   -7.1250 H   0  0  0  0  0  0  0  0  0  0  0  0
   -1.5350    1.8920   -5.6630 H   0  0  0  0  0  0  0  0  0  0  0  0
    0.8420    1.3860   -6.0830 H   0  0  0  0  0  0  0  0  0  0  0  0
    0.3880   -0.1220   -6.9170 H   0  0  0  0  0  0  0  0  0  0  0  0
    1.8240    0.7110   -4.0420 H   0  0  0  0  0  0  0  0  0  0  0  0
    0.0790   -1.3400   -2.3940 H   0  0  0  0  0  0  0  0  0  0  0  0
    3.9380   -0.1570   -1.9540 H   0  0  0  0  0  0  0  0  0  0  0  0
    2.8780    1.0170   -2.7630 H   0  0  0  0  0  0  0  0  0  0  0  0
    4.1380    1.9050   -0.7470 H   0  0  0  0  0  0  0  0  0  0  0  0
    2.3780    2.1250   -0.7000 H   0  0  0  0  0  0  0  0  0  0  0  0
    3.9330   -0.0850    0.7270 H   0  0  0  0  0  0  0  0  0  0  0  0
    3.2090    1.3530    1.4960 H   0  0  0  0  0  0  0  0  0  0  0  0
    2.6670   -1.8460   -0.2060 H   0  0  0  0  0  0  0  0  0  0  0  0
    0.5190   -2.9440   -0.4080 H   0  0  0  0  0  0  0  0  0  0  0  0
   -0.3610   -1.3830   -0.3230 H   0  0  0  0  0  0  0  0  0  0  0  0
    0.9820   -2.9490    1.8970 H   0  0  0  0  0  0  0  0  0  0  0  0
   -0.4550   -1.8900    1.9760 H   0  0  0  0  0  0  0  0  0  0  0  0
    2.3470   -1.1970    2.5140 H   0  0  0  0  0  0  0  0  0  0  0  0
    0.8260    1.2960   -0.5890 H   0  0  0  0  0  0  0  0  0  0  0  0
   -0.2820    0.3840    0.4610 H   0  0  0  0  0  0  0  0  0  0  0  0
    0.6770    1.7240    1.1310 H   0  0  0  0  0  0  0  0  0  0  0  0
    0.0420   -2.5830   -3.7220 H   0  0  0  0  0  0  0  0  0  0  0  0
   -1.7950   -2.8910   -3.8790 H   0  0  0  0  0  0  0  0  0  0  0  0
   -0.2320    0.4460    2.4920 H   0  0  0  0  0  0  0  0  0  0  0  0
    2.4520    0.9270    3.8620 H   0  0  0  0  0  0  0  0  0  0  0  0
    1.8180    1.8410    2.4730 H   0  0  0  0  0  0  0  0  0  0  0  0
    0.9970    1.9340    4.0490 H   0  0  0  0  0  0  0  0  0  0  0  0
   -0.3300   -1.5420    3.9690 H   0  0  0  0  0  0  0  0  0  0  0  0
    1.1980   -1.0480    4.7360 H   0  0  0  0  0  0  0  0  0  0  0  0
    0.1440    1.0710    5.4720 H   0  0  0  0  0  0  0  0  0  0  0  0
   -1.3840    0.5770    4.7060 H   0  0  0  0  0  0  0  0  0  0  0  0
   -1.4820   -1.4110    6.1820 H   0  0  0  0  0  0  0  0  0  0  0  0
    0.0450   -0.9180    6.9490 H   0  0  0  0  0  0  0  0  0  0  0  0
   -2.5610    0.2200    9.3500 H   0  0  0  0  0  0  0  0  0  0  0  0
   -2.6340   -1.2800    8.3960 H   0  0  0  0  0  0  0  0  0  0  0  0
   -1.1060   -0.7870    9.1620 H   0  0  0  0  0  0  0  0  0  0  0  0
    0.1480    1.1880    8.2880 H   0  0  0  0  0  0  0  0  0  0  0  0
   -0.4860    2.1020    6.8990 H   0  0  0  0  0  0  0  0  0  0  0  0
   -1.3060    2.1960    8.4760 H   0  0  0  0  0  0  0  0  0  0  0  0
   -2.9880    0.0500   -3.2560 H   0  0  0  0  0  0  0  0  0  0  0  0
  1  5  1  0  0  0  0
  1 31  1  0  0  0  0
  2 27  1  0  0  0  0
  2 32  1  0  0  0  0
  3  4  1  0  0  0  0
  3 12  1  0  0  0  0
  3 30  1  0  0  0  0
  3 33  1  0  0  0  0
  4  5  1  0  0  0  0
  4 34  1  0  0  0  0
  4 35  1  0  0  0  0
  5  6  1  0  0  0  0
  5 36  1  0  0  0  0
  6  7  1  0  0  0  0
  6 37  1  0  0  0  0
  6 38  1  0  0  0  0
  7  8  2  0  0  0  0
  7 12  1  0  0  0  0
  8  9  1  0  0  0  0
  8 39  1  0  0  0  0
  9 10  2  0  0  0  0
  9 40  1  0  0  0  0
 10 11  1  0  0  0  0
 10 16  1  0  0  0  0
 11 13  1  0  0  0  0
 11 41  1  0  0  0  0
 11 42  1  0  0  0  0
 12 21  2  0  0  0  0
 13 14  1  0  0  0  0
 13 43  1  0  0  0  0
 13 44  1  0  0  0  0
 14 15  1  0  0  0  0
 14 45  1  0  0  0  0
 14 46  1  0  0  0  0
 15 16  1  0  0  0  0
 15 19  1  0  0  0  0
 15 20  1  0  0  0  0
 16 17  1  0  0  0  0
 16 47  1  0  0  0  0
 17 18  1  0  0  0  0
 17 48  1  0  0  0  0
 17 49  1  0  0  0  0
 18 19  1  0  0  0  0
 18 50  1  0  0  0  0
 18 51  1  0  0  0  0
 19 22  1  0  0  0  0
 19 52  1  0  0  0  0
 20 53  1  0  0  0  0
 20 54  1  0  0  0  0
 20 55  1  0  0  0  0
 21 56  1  0  0  0  0
 21 57  1  0  0  0  0
 22 23  1  0  0  0  0
 22 24  1  0  0  0  0
 22 58  1  0  0  0  0
 23 59  1  0  0  0  0
 23 60  1  0  0  0  0
 23 61  1  0  0  0  0
 24 25  1  0  0  0  0
 24 62  1  0  0  0  0
 24 63  1  0  0  0  0
 25 26  1  0  0  0  0
 25 64  1  0  0  0  0
 25 65  1  0  0  0  0
 26 27  1  0  0  0  0
 26 66  1  0  0  0  0
 26 67  1  0  0  0  0
 27 28  1  0  0  0  0
 27 29  1  0  0  0  0
 28 68  1  0  0  0  0
 28 69  1  0  0  0  0
 28 70  1  0  0  0  0
 29 71  1  0  0  0  0
 29 72  1  0  0  0  0
 29 73  1  0  0  0  0
 30 74  1  0  0  0  0
M  END
> <OPENEYE_ISO_SMILES>
C[C@H](CCCC(C)(C)O)[C@H]1CC[C@@H]\2[C@@]1(CCC/C2=C\C=C/3\C[C@H](C[C@@H](C3=C)O)O)C

> <OPENEYE_INCHI>
InChI=1S/C27H44O3/c1-18(8-6-14-26(3,4)30)23-12-13-24-20(9-7-15-27(23,24)5)10-11-21-16-22(28)17-25(29)19(21)2/h10-11,18,22-25,28-30H,2,6-9,12-17H2,1,3-5H3/b20-10+,21-11-/t18-,22-,23-,24+,25+,27-/m1/s1

> <OPENEYE_INCHIKEY>
GMRQFYUYWCNGIN-NKMMMXOESA-N

> <FORMULA>
C27H44O3

$$$$
