YR3
  -OEChem-11252216213D

 75 76  0     1  0  0  0  0  0999 V2000
   -2.8110   -0.2510    0.1750 C   0  0  0  0  0  0  0  0  0  0  0  0
   -4.0480    0.3730    0.2500 C   0  0  0  0  0  0  0  0  0  0  0  0
   -4.1230    1.7570    0.2920 C   0  0  0  0  0  0  0  0  0  0  0  0
   -2.9660    2.5120    0.2580 C   0  0  0  0  0  0  0  0  0  0  0  0
   -1.7350    1.8880    0.1830 C   0  0  0  0  0  0  0  0  0  0  0  0
   -1.6570    0.5080    0.1420 C   0  0  0  0  0  0  0  0  0  0  0  0
   -0.4740    2.7140    0.1450 C   0  0  0  0  0  0  0  0  0  0  0  0
    0.7050    1.8170   -0.1310 C   0  0  0  0  0  0  0  0  0  0  0  0
   -0.5860    3.7640   -0.9620 C   0  0  0  0  0  0  0  0  0  0  0  0
   -0.2810    3.4110    1.4930 C   0  0  0  0  0  0  0  0  0  0  0  0
   -0.3290    2.3730    2.6160 C   0  0  0  0  0  0  0  0  0  0  0  0
   -0.9160    3.0760   -2.2880 C   0  0  0  0  0  0  0  0  0  0  0  0
    0.7100    1.0070   -1.2510 C   0  0  0  0  0  0  0  0  0  0  0  0
    1.7900    0.1840   -1.5050 C   0  0  0  0  0  0  0  0  0  0  0  0
    2.8710    0.1720   -0.6360 C   0  0  0  0  0  0  0  0  0  0  0  0
    5.6120   -2.9050   -0.3390 O   0  0  0  0  0  0  0  0  0  0  0  0
    6.1100   -1.5670   -0.3900 C   0  0  2  0  0  0  0  0  0  0  0  0
    7.3150   -1.4350    0.5440 C   0  0  0  0  0  0  0  0  0  0  0  0
    8.4120   -2.4040    0.1000 C   0  0  0  0  0  0  0  0  0  0  0  0
    7.8470   -0.0010    0.4890 C   0  0  0  0  0  0  0  0  0  0  0  0
    6.8890   -1.7670    1.9750 C   0  0  0  0  0  0  0  0  0  0  0  0
    5.0120   -0.5980    0.0540 C   0  0  0  0  0  0  0  0  0  0  0  0
    3.9350   -0.6370   -0.8840 O   0  0  0  0  0  0  0  0  0  0  0  0
    1.7940   -0.6990   -2.7260 C   0  0  0  0  0  0  0  0  0  0  0  0
    2.8640    0.9860    0.4870 C   0  0  0  0  0  0  0  0  0  0  0  0
    1.7840    1.8110    0.7350 C   0  0  0  0  0  0  0  0  0  0  0  0
   -5.4650    2.4380    0.3730 C   0  0  0  0  0  0  0  0  0  0  0  0
   -5.1840   -0.3720    0.2830 O   0  0  0  0  0  0  0  0  0  0  0  0
   -5.0310   -1.7920    0.2370 C   0  0  0  0  0  0  0  0  0  0  0  0
   -6.4090   -2.4550    0.2830 C   0  0  1  0  0  0  0  0  0  0  0  0
   -7.1410   -2.1150   -0.8960 O   0  0  0  0  0  0  0  0  0  0  0  0
   -6.2420   -3.9740    0.3590 C   0  0  0  0  0  0  0  0  0  0  0  0
   -7.5230   -4.5870    0.5190 O   0  0  0  0  0  0  0  0  0  0  0  0
   -2.7500   -1.3290    0.1470 H   0  0  0  0  0  0  0  0  0  0  0  0
   -3.0240    3.5900    0.2900 H   0  0  0  0  0  0  0  0  0  0  0  0
   -0.6940    0.0240    0.0830 H   0  0  0  0  0  0  0  0  0  0  0  0
   -1.3770    4.4710   -0.7130 H   0  0  0  0  0  0  0  0  0  0  0  0
    0.3610    4.2970   -1.0540 H   0  0  0  0  0  0  0  0  0  0  0  0
    0.6850    3.9160    1.5050 H   0  0  0  0  0  0  0  0  0  0  0  0
   -1.0760    4.1430    1.6400 H   0  0  0  0  0  0  0  0  0  0  0  0
   -1.2620    1.8130    2.5540 H   0  0  0  0  0  0  0  0  0  0  0  0
    0.5130    1.6890    2.5130 H   0  0  0  0  0  0  0  0  0  0  0  0
   -0.2710    2.8780    3.5800 H   0  0  0  0  0  0  0  0  0  0  0  0
   -1.0990    3.8300   -3.0530 H   0  0  0  0  0  0  0  0  0  0  0  0
   -0.0770    2.4480   -2.5890 H   0  0  0  0  0  0  0  0  0  0  0  0
   -1.8060    2.4590   -2.1650 H   0  0  0  0  0  0  0  0  0  0  0  0
   -0.1320    1.0180   -1.9280 H   0  0  0  0  0  0  0  0  0  0  0  0
    5.3240   -3.1850    0.5400 H   0  0  0  0  0  0  0  0  0  0  0  0
    6.4130   -1.3300   -1.4100 H   0  0  0  0  0  0  0  0  0  0  0  0
    8.7150   -2.1670   -0.9200 H   0  0  0  0  0  0  0  0  0  0  0  0
    9.2710   -2.3090    0.7650 H   0  0  0  0  0  0  0  0  0  0  0  0
    8.0330   -3.4250    0.1390 H   0  0  0  0  0  0  0  0  0  0  0  0
    7.0650    0.6890    0.8050 H   0  0  0  0  0  0  0  0  0  0  0  0
    8.7050    0.0930    1.1550 H   0  0  0  0  0  0  0  0  0  0  0  0
    8.1500    0.2350   -0.5300 H   0  0  0  0  0  0  0  0  0  0  0  0
    6.5100   -2.7880    2.0140 H   0  0  0  0  0  0  0  0  0  0  0  0
    7.7470   -1.6730    2.6410 H   0  0  0  0  0  0  0  0  0  0  0  0
    6.1070   -1.0760    2.2910 H   0  0  0  0  0  0  0  0  0  0  0  0
    4.6470   -0.8890    1.0390 H   0  0  0  0  0  0  0  0  0  0  0  0
    5.4170    0.4130    0.1000 H   0  0  0  0  0  0  0  0  0  0  0  0
    2.2390   -0.1610   -3.5630 H   0  0  0  0  0  0  0  0  0  0  0  0
    2.3750   -1.5990   -2.5220 H   0  0  0  0  0  0  0  0  0  0  0  0
    0.7700   -0.9770   -2.9770 H   0  0  0  0  0  0  0  0  0  0  0  0
    3.7040    0.9780    1.1660 H   0  0  0  0  0  0  0  0  0  0  0  0
    1.7800    2.4480    1.6070 H   0  0  0  0  0  0  0  0  0  0  0  0
   -5.7410    2.5740    1.4190 H   0  0  0  0  0  0  0  0  0  0  0  0
   -5.4100    3.4100   -0.1170 H   0  0  0  0  0  0  0  0  0  0  0  0
   -6.2150    1.8220   -0.1230 H   0  0  0  0  0  0  0  0  0  0  0  0
   -4.5240   -2.0730   -0.6860 H   0  0  0  0  0  0  0  0  0  0  0  0
   -4.4400   -2.1220    1.0910 H   0  0  0  0  0  0  0  0  0  0  0  0
   -6.9520   -2.1050    1.1610 H   0  0  0  0  0  0  0  0  0  0  0  0
   -6.7160   -2.3970   -1.7180 H   0  0  0  0  0  0  0  0  0  0  0  0
   -5.7790   -4.3350   -0.5590 H   0  0  0  0  0  0  0  0  0  0  0  0
   -5.6080   -4.2280    1.2090 H   0  0  0  0  0  0  0  0  0  0  0  0
   -7.4920   -5.5520    0.5750 H   0  0  0  0  0  0  0  0  0  0  0  0
  1  2  2  0  0  0  0
  1  6  1  0  0  0  0
  2  3  1  0  0  0  0
  2 28  1  0  0  0  0
  3  4  2  0  0  0  0
  3 27  1  0  0  0  0
  4  5  1  0  0  0  0
  5  6  2  0  0  0  0
  5  7  1  0  0  0  0
  7  8  1  0  0  0  0
  7  9  1  0  0  0  0
  7 10  1  0  0  0  0
  8 13  2  0  0  0  0
  8 26  1  0  0  0  0
  9 12  1  0  0  0  0
 10 11  1  0  0  0  0
 13 14  1  0  0  0  0
 14 15  2  0  0  0  0
 14 24  1  0  0  0  0
 15 23  1  0  0  0  0
 15 25  1  0  0  0  0
 16 17  1  0  0  0  0
 17 18  1  0  0  0  0
 17 22  1  0  0  0  0
 18 19  1  0  0  0  0
 18 20  1  0  0  0  0
 18 21  1  0  0  0  0
 22 23  1  0  0  0  0
 25 26  2  0  0  0  0
 28 29  1  0  0  0  0
 29 30  1  0  0  0  0
 30 31  1  0  0  0  0
 30 32  1  0  0  0  0
 32 33  1  0  0  0  0
  1 34  1  0  0  0  0
  4 35  1  0  0  0  0
  6 36  1  0  0  0  0
  9 37  1  0  0  0  0
  9 38  1  0  0  0  0
 10 39  1  0  0  0  0
 10 40  1  0  0  0  0
 11 41  1  0  0  0  0
 11 42  1  0  0  0  0
 11 43  1  0  0  0  0
 12 44  1  0  0  0  0
 12 45  1  0  0  0  0
 12 46  1  0  0  0  0
 13 47  1  0  0  0  0
 16 48  1  0  0  0  0
 17 49  1  0  0  0  0
 19 50  1  0  0  0  0
 19 51  1  0  0  0  0
 19 52  1  0  0  0  0
 20 53  1  0  0  0  0
 20 54  1  0  0  0  0
 20 55  1  0  0  0  0
 21 56  1  0  0  0  0
 21 57  1  0  0  0  0
 21 58  1  0  0  0  0
 22 59  1  0  0  0  0
 22 60  1  0  0  0  0
 24 61  1  0  0  0  0
 24 62  1  0  0  0  0
 24 63  1  0  0  0  0
 25 64  1  0  0  0  0
 26 65  1  0  0  0  0
 27 66  1  0  0  0  0
 27 67  1  0  0  0  0
 27 68  1  0  0  0  0
 29 69  1  0  0  0  0
 29 70  1  0  0  0  0
 30 71  1  0  0  0  0
 31 72  1  0  0  0  0
 32 73  1  0  0  0  0
 32 74  1  0  0  0  0
 33 75  1  0  0  0  0
M  END
> <OPENEYE_ISO_SMILES>
CCC(CC)(c1ccc(c(c1)C)OC[C@H](CO)O)c2ccc(c(c2)C)OC[C@@H](C(C)(C)C)O

> <OPENEYE_INCHI>
InChI=1S/C28H42O5/c1-8-28(9-2,21-10-12-24(19(3)14-21)32-17-23(30)16-29)22-11-13-25(20(4)15-22)33-18-26(31)27(5,6)7/h10-15,23,26,29-31H,8-9,16-18H2,1-7H3/t23-,26-/m0/s1

> <OPENEYE_INCHIKEY>
AIKLCYAFOOBGEV-OZXSUGGESA-N

> <FORMULA>
C28H42O5

$$$$
